<?xml version="1.0" encoding="UTF-8"?>
<projectDescription>
  <name>umdf</name>
  <comment>OpenUMDF is a Java implementation of the FAST UMDF protocol on top of OpenFAST. NO_M2ECLIPSE_SUPPORT: Project files created with the maven-eclipse-plugin are not supported in M2Eclipse.</comment>
  <projects/>
  <buildSpec>
    <buildCommand>
      <name>org.eclipse.jdt.core.javabuilder</name>
    </buildCommand>
  </buildSpec>
  <natures>
    <nature>org.eclipse.jdt.core.javanature</nature>
  </natures>
</projectDescription>